lehigh_full_1_fb.dss
clear
set defaultbasefrequency=60
new object=circuit.lehigh basekv=115 pu=1.0001 phases=3 bus1=sourcebus angle=30 mvasc3=20000 mvasc1=21000
edit object=vsource.source basekv=115 bus1=sourcebus.1.2.3 pu=1.00 r1=0 x1=0.0001 r0=0 x0=0.0001
new object=vsource.secondsource basekv=4.16 bus1=680.1.2.3 pu=1.00 r1=0 x1=0.0001 r0=0 x0=0.0001
new object=transformer.sub phases=3 windings=2 xhl=0.008 buses=[sourcebus.1.2.3,650.1.2.3] conns=[delta,wye] kvs=[115,4.16] kvas=[5000,5000] %rs=[0.0005,0.0005]
new object=transformer.reg1 phases=1 bank=reg1 xhl=0.01 kvas=[1666,1666] buses=[650.1,rg60.1] kvs=[2.4,2.4] %loadloss=0.01
new object=regcontrol.reg1 transformer=reg1 winding=2 vreg=121 band=2 ptratio=20 ctprim=700 r=3 x=9
new object=transformer.reg2 phases=1 bank=reg1 xhl=0.01 kvas=[1666,1666] buses=[650.2,rg60.2] kvs=[2.4,2.4] %loadloss=0.01
new object=regcontrol.reg2 transformer=reg2 winding=2 vreg=121 band=2 ptratio=20 ctprim=700 r=3 x=9
new object=transformer.reg3 phases=1 bank=reg1 xhl=0.01 kvas=[1666,1666] buses=[650.3,rg60.3] kvs=[2.4,2.4] %loadloss=0.01
new object=regcontrol.reg3 transformer=reg3 winding=2 vreg=121 band=2 ptratio=20 ctprim=700 r=3 x=9
new object=transformer.xfm1 phases=3 windings=2 xhl=2 buses=[633.1.2.3,634.1.2.3] conns=[wye,wye] kvs=[4.16,0.480] kvas=[500,500] %rs=[0.55,0.55] xht=1 xlt=1
new object=linecode.mtx601 nphases=3 basefreq=60 rmatrix=[0.3465|0.1560,0.3375|0.1580,0.1535,0.3414] xmatrix=[1.0179|0.5017,1.0478|0.4236,0.3849,1.0348] units=mi
new object=linecode.mtx602 nphases=3 basefreq=60 rmatrix=[0.7526|0.1580,0.7475|0.1560,0.1535,0.7436] xmatrix=[1.1814|0.4236,1.1983|0.5017,0.3849,1.2112] units=mi
new object=linecode.mtx603 nphases=2 basefreq=60 rmatrix=[1.3238|0.2066,1.3294] xmatrix=[1.3569|0.4591,1.3471] units=mi
new object=linecode.mtx604 nphases=2 basefreq=60 rmatrix=[1.3238|0.2066,1.3294] xmatrix=[1.3569|0.4591,1.3471] units=mi
new object=linecode.mtx605 nphases=1 basefreq=60 rmatrix=[1.3292] xmatrix=[1.3475] units=mi
new object=linecode.mtx606 nphases=3 units=mi rmatrix=[0.791721|0.318476,0.781649|0.28345,0.318476,0.791721] xmatrix=[0.438352|0.0276838,0.396697|-0.0184204,0.0276838,0.438352] cmatrix=[383.948|0,383.948|0,0,383.948]
new object=linecode.mtx607 nphases=1 basefreq=60 rmatrix=[1.3425] xmatrix=[0.5124] cmatrix=[236] units=mi
new object=loadshape.solar_634_shape npts=8760 interval=1 useactual=yes mult=[0.0,0.0,0.0,0.0,0.0,0.0,0.0,0.0,1.7175463949941188,5.207401533808254,7.350849650807437,22.58847321161395,5.1800203593953045,12.10496828819768,18.10941091719016,19.49713862039193,9.741724016592727,0.6456978766108324,0.0,0.0,0.0,0.0,0.0,0.0,0.0,0.0,0.0,0.0,0.0,0.0,0.0,0.0,4.506692388604132,11.44533090461298,16.020974068784266,0.6320072894043576,34.391252902199625,12.297383268390494,44.654961671010135,30.708982783192674,16.213140129209698,1.3877277032017696,0.0,0.0,0.0,0.0,0.0,0.0,0.0,0.0,0.0,0.0,0.0,0.0,0.0,0.0,13.217888568200385,30.818756400611857,40.94531037759022,17.353690503392748,30.86007708199867,30.777684638992433,25.144132463411733,21.833001717583933,11.459270411586846,0.9068147126034164,0.0,0.0,0.0,0.0,0.0,0.0,0.0,0.0,0.0,0.0,0.0,0.0,0.0,0.0,20.115455322589817,46.08401005559872,65.43005437718465,77.50764149096936,82.11041690978621,79.93933869860669,70.321327806407,53.90208210979804,29.37626634858419,5.770706967412847,0.0,0.0,0.0,0.0,0.0,0.0,0.0,0.0,0.0,0.0,0.0,0.0,0.0,0.0,21.874073479203357,48.80445419340896,68.67273218698007,80.70874969961058,85.10566847079552,82.09647740281235,71.79169687238242,54.7265043793952,29.651073771783253,5.633303255813317,0.0,0.0,0.0,0.0,0.0,0.0,0.0,0.0,0.0,0.0,0.0,0.0,0.0,0.0,17.284988647592982,40.931619790383756,64.16579087860853,57.50195978579874,65.00390373541221,67.05126882219867,67.31238565819125,51.07161543480121,27.6450293663836,5.16632977218883,0.0,0.0,0.0,0.0,0.0,0.0,0.0,0.0,0.0,0.0,0.0,0.0,0.0,0.0,17.54610548358557,17.422392359192518,62.25607842318899,71.4068669119968,63.94599472400277,61.22555058619252,51.60753969399284,26.38076586780749,13.932288300610988,1.4838107334144843,0.0,0.0,0.0,0.0,0.0,0.0,0.0,0.0,0.0,0.0,0.0,0.0,0.0,0.0,17.861984668404048,41.646019522794354,10.992048008194967,14.481903147009106,32.41258967121292,37.551538268988814,30.76399405178596,19.93673092960347,10.579836873396381,1.2229428171892909,0.0,0.0,0.0,0.0,0.0,0.0,0.0,0.0,0.0,0.0,0.0,0.0,0.0,0.0,18.35658824620888,42.14062310059917,22.58847321161395,48.04873377961155,37.63393071199504,17.57348665799852,22.533710862788052,18.851191824013707,9.769105191005679,4.6167149257907125,0.0,0.0,0.0,0.0,0.0,0.0,0.0,0.0,0.0,0.0,0.0,0.0,0.0,0.0,8.505090612196962,21.02227003519323,33.86901923021445,58.05157463219687,33.6905437569955,43.99557320719282,44.682591765190466,36.05378802860046,20.115455322589817,3.531175820200952,0.0,0.0,0.0,0.0,0.0,0.0,0.0,0.0,0.0,0.0,0.0,0.0,0.0,0.0,22.148880902402414,49.02449926778213,68.61772091838678,80.42050060897243,84.7621591917967,82.11041690978621,72.5197871919995,56.457741361595815,33.51181936400916,8.257664363410854,0.0,0.0,0.0,0.0,0.0,0.0,0.0,0.0,0.0,0.0,0.0,0.0,0.0,0.0,20.45896460158864,46.468840015984355,65.21025822257887,79.07384466739009,83.91035574778658,82.04171505398645,72.69851158498585,55.04238356421371,32.7287177757988,8.134200158785191,0.0,0.0,0.0,0.0,0.0,0.0,0.0,0.0,0.0,0.0,0.0,0.0,0.0,0.0,20.019123372609712,45.946606343999186,64.70171513780018,59.68672858418474,66.25422772701442,60.250034017789325,54.369304513189896,43.37725650499494,25.735067991196658,6.224238783598253,0.0,0.0,0.0,0.0,0.0,0.0,0.0,0.0,0.0,0.0,0.0,0.0,0.0,0.0,8.340305726184484,19.758255456384514,35.806361779814345,45.64441774638718,52.2945582519905,47.993971430785656,28.386810273207146,23.110706883599118,13.039164175214047,2.1297575297927067,0.0,0.0,0.0,0.0,0.0,0.0,0.0,0.0,0.0,0.0,0.0,0.0,0.0,0.0,4.396918771184944,11.80277969058567,54.82258740960793,68.34291349518772,78.93644095579056,78.3044336663862,69.95043735299525,54.616481842208636,31.83559365040185,8.051558796011557,0.0,0.0,0.0,0.0,0.0,0.0,0.0,0.0,0.0,0.0,0.0,0.0,0.0,0.0,18.20549394740288,42.30565690637905,59.672789077210886,50.46723823957719,59.31558921100558,77.23258514800294,46.674945583383646,21.32445863280524,11.9401834021852,2.1571387042056567,0.0,0.0,0.0,0.0,0.0,0.0,0.0,0.0,0.0,0.0,0.0,0.0,0.0,0.0,18.823810649600762,45.27327837320803,66.08944284100195,80.5439648135981,83.60816715017457,81.464470113408,72.34106279901314,56.924963764987666,33.3333438907902,8.683566085415917,0.0,0.0,0.0,0.0,0.0,0.0,0.0,0.0,0.0,0.0,0.0,0.0,0.0,0.0,20.55504763180135,46.3038062102045,66.99625755360536,79.34865209058914,84.29518570817221,82.17911876558597,73.75642059639523,57.74938603458486,33.924030498807745,8.958373508614976,0.0,0.0,0.0,0.0,0.0,0.0,0.0,0.0,0.0,0.0,0.0,0.0,0.0,0.0,21.68165849901053,48.612288132983544,68.17787968940786,79.8295650811875,87.45522215519402,85.21569100798209,75.73508382738196,57.92786150780381,35.64157689380187,9.769105191005679,0.0,0.0,0.0,0.0,0.0,0.0,0.0,0.0,0.0,0.0,0.0,0.0,0.0,0.0,21.28338687118581,47.47173775880049,66.37794085140747,77.72718872580775,81.97301319818668,79.51343697660164,70.88463324001162,55.894435927991196,33.86901923021445,9.109716727188369,0.0,0.0,0.0,0.0,0.0,0.0,0.0,0.0,0.0,0.0,0.0,0.0,0.0,0.0,5.482208957007314,13.726182733211695,20.7885343736136,11.871481546385436,34.41863407661257,9.178418582988137,9.576690210812858,0.1374037115995295,0.0,0.0,0.0,0.0,0.0,0.0,0.0,0.0,0.0,0.0,0.0,0.0,0.0,0.0,0.0,0.0,5.05630723500225,14.853042520188268,41.9758382145867,44.833686063996474,84.63844606740366,82.81112605499034,39.13168095238339,33.951660592988084,19.744315949410645,4.382979264211079,0.0,0.0,0.0,0.0,0.0,0.0,0.0,0.0,0.0,0.0,0.0,0.0,0.0,0.0,5.715944618586949,14.82541242600793,17.229977378999692,42.882652927190115,90.47810381038366,88.95297239558235,79.38972385220859,62.66828955798758,37.812406185214,10.71724058499591,0.0,0.0,0.0,0.0,0.0,0.0,0.0,0.0,0.0,0.0,0.0,0.0,0.0,0.0,22.671114574387587,49.917374473411684,69.56560739260962,81.34100590878234,86.24596992521118,84.1575330768053,75.37763504140928,59.755430439984515,37.427825144595744,10.964417914014629,0.0,0.0,0.0,0.0,0.0,0.0,0.0,0.0,0.0,0.0,0.0,0.0,0.0,0.0,21.5992660560043,47.70522450061273,66.364250264201,77.78219999440104,82.46761677599152,80.21414612180575,72.02518361419466,57.474578611385795,35.930074904207395,10.593527460602855,0.0,0.0,0.0,0.0,0.0,0.0,0.0,0.0,0.0,0.0,0.0,0.0,0.0,0.0,14.330808848203098,32.85243090019185,37.867417453807285,56.2103151128097,62.92915747421277,60.305045286382615,54.90522877238156,40.38200494398564,24.731921328613137,7.062351640401904,0.0,0.0,0.0,0.0,0.0,0.0,0.0,0.0,0.0,0.0,0.0,0.0,0.0,0.0,17.037562398806873,39.804760003407175,38.56812659901141,71.64060257357642,75.58374060880857,54.836526916581796,7.6119664868000205,53.311395501780474,31.49208437140303,8.862290478402262,0.0,0.0,0.0,0.0,0.0,0.0,0.0,0.0,0.0,0.0,0.0,0.0,0.0,0.0,4.822820493190006,7.763060785606027,11.706447740605569,18.095720329983692,14.289737086583676,9.92019948981168,10.057603201411213,3.902066273612725,2.006044405399652,0.04132068138681503,0.0,0.0,0.0,0.0,0.0,0.0,0.0,0.0,0.0,0.0,0.0,0.0,0.0,0.0,22.698495748800536,49.464091576993674,68.86514716717288,80.86009291818398,85.75136634740636,83.84165389198681,75.85854803200763,60.96443375019993,37.52390817480846,11.885172133591912,0.0,0.0,0.0,0.0,0.0,0.0,0.0,0.0,0.0,0.0,0.0,0.0,0.0,0.0,21.55819429438488,47.66415273899331,66.69406895599336,78.12595819316726,82.90720908520305,81.2036021971828,73.1244133069909,46.935813499608834,31.230967535410446,11.80277969058567,0.0,0.0,0.0,0.0,0.0,0.0,0.0,0.0,0.0,0.0,0.0,0.0,0.0,0.0,6.7325329486095535,20.65113066201407,35.1606639032035,35.58656562520857,45.78182145798671,43.23985279339541,39.03534900240329,28.08462167559513,17.229977378999692,4.946284697815671,0.0,0.0,0.0,0.0,0.0,0.0,0.0,0.0,0.0,0.0,0.0,0.0,0.0,0.0,22.684805161594056,49.86261212458578,70.66483708540585,82.7837448805774,87.89481446440556,86.36968304960425,77.57609442700175,62.530885846388045,38.93926597219058,12.998092413594625,0.0,0.0,0.0,0.0,0.0,0.0,0.0,0.0,0.0,0.0,0.0,0.0,0.0,0.0,22.767197604600295,48.54358627718377,67.3397668326042,78.90905978137761,83.62185773738105,82.330213064392,74.5532127718121,60.34611704800204,38.92557538498409,13.245269742613337,0.0,0.0,0.0,0.0,0.0,0.0,0.0,0.0,0.0,0.0,0.0,0.0,0.0,0.0,22.602412718587818,19.606912237811123,45.987927025386,57.14475991959345,65.21025822257887,63.877292868203,55.02869297700722,15.759857232791688,11.390568555787082,7.515883456587306,0.0,0.0,0.0,0.0,0.0,0.0,0.0,0.0,0.0,0.0,0.0,0.0,0.0,0.0,0.0,17.46346412081194,47.08715671818224,66.03468049217608,86.0401132775793,85.97141142177952,78.77140715001069,64.05601726118935,40.423076705605055,14.221035230783913,0.0,0.0,0.0,0.0,0.0,0.0,0.0,0.0,0.0,0.0,0.0,0.0,0.0,0.0,16.323162666396275,43.528350803800954,65.11417519236615,86.97430916459567,73.49530376040269,82.61871107479753,81.10727024720269,62.99785933001254,24.34734028799489,11.843851452205095,0.0,0.0,0.0,0.0,0.0,0.0,0.0,0.0,0.0,0.0,0.0,0.0,0.0,0.0,12.008885257984964,15.93833270601064,12.008885257984964,18.095720329983692,11.981255163804624,50.02739701059826,45.56177638361355,33.07222705479762,11.486651585999795,1.580142683394589,0.0,0.0,0.0,0.0,0.0,0.0,0.0,0.0,0.0,0.0,0.0,0.0,0.0,0.0,0.8931241253969416,5.770706967412847,9.02707536441474,32.302816053793734,38.884254703597286,18.10941091719016,26.22967156900149,11.431640317406506,6.938638516008848,13.066794269394386,0.0,0.0,0.0,0.0,0.0,0.0,0.0,0.0,0.0,0.0,0.0,0.0,0.0,0.0,5.688314524406608,5.41350710120755,20.994639941012892,41.12378585080918,37.71632315500129,47.18323974839495,51.56621901260603,62.18737656738922,40.20328055099929,14.427140798183204,0.0,0.0,0.0,0.0,0.0,0.0,0.0,0.0,0.0,0.0,0.0,0.0,0.0,0.0,4.561703657197423,11.582734616212509,21.667967911804066,80.69505911240411,30.283081061187605,30.11804725540774,34.18514733480033,25.72137740399018,0.6320072894043576,13.410303548393207,0.0,0.0,0.0,0.0,0.0,0.0,0.0,0.0,0.0,0.0,0.0,0.0,0.0,0.0,7.295838382214147,32.42652917818679,70.08784106459477,83.66317841876787,88.32071618641059,87.89481446440556,79.87063684280695,65.01784324238605,42.08561183200589,15.869630850210875,0.0,0.0,0.0,0.0,0.0,0.0,0.0,0.0,0.0,0.0,0.0,0.0,0.0,2.3221725099855264,26.75190524098665,53.39378794478673,73.15204340117124,84.73477801738376,89.58497968498669,87.7163389911866,79.74717263818127,65.18262812839853,43.528350803800954,16.680362532601574,0.0,0.0,0.0,0.0,0.0,0.0,0.0,0.0,0.0,0.0,0.0,0.0,0.0,2.363244271604951,25.790079259789948,51.45644539518685,70.01913920879501,81.34100590878234,86.19120757638528,84.88587231618976,79.8295650811875,63.258976166005105,42.003219388999646,16.172068367590274,0.0,0.0,0.0,0.0,0.0,0.0,0.0,0.0,0.0,0.0,0.0,0.0,0.0,2.9815609738028344,27.109105107191954,53.4074785319932,74.34735612418021,83.34705031418197,87.90850505161201,73.85250362660797,70.03282979600151,53.68228595519226,42.388049349385284,9.150788488807798,0.0,0.0,0.0,0.0,0.0,0.0,0.0,0.0,0.0,0.0,0.0,0.0,0.0,0.055011268593289885,15.059148087587564,34.47364534520586,48.722061750402716,55.468534205986145,65.47112613880407,69.29079996941054,46.08401005559872,40.533099242791636,28.73031955220597,9.741724016592727,0.0,0.0,0.0,0.0,0.0,0.0,0.0,0.0,0.0,0.0,0.0,0.0,0.0,0.6596373835846977,24.264947844988647,48.65335989460296,68.17787968940786,80.07674241020624,85.0230271080219,83.71794076759376,76.33946102260599,61.70646357679087,39.48888081858868,15.265253654986855,0.0,0.0,0.0,0.0,0.0,0.0,0.0,0.0,0.0,0.0,0.0,0.0,0.0,0.0,3.613568263207191,5.125009090802017,16.254460810596512,22.739816430187343,24.251008338014778,29.362326841610326,18.700097525207703,16.22707963618356,17.27129806038651,6.416653763791071,0.0,0.0,0.0,0.0,0.0,0.0,0.0,0.0,0.0,0.0,0.0,0.0,0.0,0.0,0.3985205475921136,17.724580956804523,31.533405052789842,40.821597253197176,61.733844751203826,70.54137288078017,55.193726782787095,68.27421163938794,25.762449165609606,8.820969797015445,0.0,0.0,0.0,0.0,0.0,0.0,0.0,0.0,0.0,0.0,0.0,0.0,0.0,2.899168530796594,8.99969419000179,19.40080667041183,34.19883792200681,47.334334047200954,91.54970340899956,88.38966696197777,80.53027422639164,66.18577479098205,44.654961671010135,18.013078967210053,0.0,0.0,0.0,0.0,0.0,0.0,0.0,0.0,0.0,0.0,0.0,0.0,0.0,3.7099002131872965,27.521316241990537,53.22875413900685,71.65429316078287,82.90720908520305,86.90560730879587,85.18806091380178,77.9059131187941,64.00100599259606,43.23985279339541,17.532165976611704,0.0,0.0,0.0,0.0,0.0,0.0,0.0,0.0,0.0,0.0,0.0,0.0,0.0,3.380081521394948,10.4698143362098,43.803158227,52.940256128601334,81.87693016797398,86.17726806941141,84.65213665461013,77.28759641659623,63.43770055899146,42.923724688809536,16.6666719453951,0.0,0.0,0.0,0.0,0.0,0.0,0.0,0.0,0.0,0.0,0.0,0.0,0.0,1.4977502403883496,5.5646014000135535,27.38391253039101,25.762449165609606,35.572875038002095,48.83208428758929,39.818450590613644,50.796808011602145,25.034358845992536,7.804381466992839,0.013690587206474859,0.0,0.0,0.0,0.0,0.0,0.0,0.0,0.0,0.0,0.0,0.0,0.0,0.0,0.0,0.7143997324105972,0.3571998662052986,4.300586821204838,27.892206695402308,19.359734908792404,44.66890117798399,48.46094491441015,32.08301989918797,3.5174852329944764,16.487947552408755,0.0,0.0,0.0,0.0,0.0,0.0,0.0,0.0,0.0,0.0,0.0,0.0,0.0,4.9602242047895375,31.079873236604442,58.83467622040722,78.81272783139751,91.26120539859406,95.80921846858496,90.6155075219832,82.79743546778387,68.17787968940786,46.798409788009316,19.78563663079747,0.0,0.0,0.0,0.0,0.0,0.0,0.0,0.0,0.0,0.0,0.0,0.0,0.0,5.2487222151950705,30.47524712161304,56.03183963959074,74.27865426838042,85.35309471958165,89.77714574541213,87.90850505161201,80.2004555345993,66.22684655260149,45.3282896418013,19.084927485593344,0.0,0.0,0.0,0.0,0.0,0.0,0.0,0.0,0.0,0.0,0.0,0.0,0.0,3.489855138814137,27.590018097790303,43.28117347478222,59.78281161439746,72.52003611176687,72.56110787338632,72.58873796756666,43.514660216594464,30.489186628586896,41.79711382160035,18.315516484589452,0.0,0.0,0.0,0.0,0.0,0.0,0.0,0.0,0.0,0.0,0.0,0.0,0.0,1.9923538181931773,16.96886054300711,38.128534289799866,45.52070462199411,55.468534205986145,54.135568851610266,66.80384257341254,49.65650655718648,25.07543060761196,7.845453228612264,7.7767513728125,0.0,0.0,0.0,0.0,0.0,0.0,0.0,0.0,0.0,0.0,0.0,0.0,0.0,4.259515059585413,20.884866323593695,28.139632944188428,46.61993431479036,64.743035819187,63.84991169379005,58.75228377740099,50.865509867401904,49.1892841537946,28.551844078987013,6.622759331190365,0.0,0.0,0.0,0.0,0.0,0.0,0.0,0.0,0.0,0.0,0.0,0.0,0.0,2.2671612413922366,12.572190691589556,33.14092891059739,34.19883792200681,42.800260484183866,52.08845268459121,60.483520759601575,53.39378794478673,47.29301336581413,34.295169871986914,10.648538729196147,0.0,0.0,0.0,0.0,0.0,0.0,0.0,0.0,0.0,0.0,0.0,0.0,0.0,6.128155753385537,30.970099619185252,55.536987142018525,73.1244133069909,83.04461279680258,89.88716828259871,87.24911658779472,78.49659972681162,63.30029684739194,41.412532780982104,17.985697792797104,0.0,0.0,0.0,0.0,0.0,0.0,0.0,0.0,0.0,0.0,0.0,0.0,0.0,6.7051517741966045,33.1822495919842,59.85151347019722,79.10122584180307,90.87637543820836,95.41069792099285,93.54205722719273,76.71060039578514,70.43135034359359,44.70997293960343,21.461862344404768,0.0,0.0,0.0,0.0,0.0,0.0,0.0,0.0,0.0,0.0,0.0,0.0,0.0,6.526427381210262,30.337843410013505,51.77232458000533,79.23862955340256,89.77739466517954,93.597068495786,90.9176961195952,81.09357965999622,63.08050069278617,42.003219388999646,18.054399648596874,0.0,0.0,0.0,0.0,0.0,0.0,0.0,0.0,0.0,0.0,0.0,0.0,0.0,6.938638516008848,3.1052740981958884,60.66199623282054,26.573180848000305,32.53630279560598,44.87500674538329,95.98769394180391,85.65528331719364,70.66483708540585,47.45804717159401,21.379469901398526,0.0,0.0,0.0,0.0,0.0,0.0,0.0,0.0,0.0,0.0,0.0,0.0,0.0,7.680668342599787,34.17145674759386,59.38429106680535,76.9990984061907,87.7163389911866,91.94822395659168,90.4504737162033,82.2201905272054,68.52138896840667,47.581760295987074,21.461862344404768,0.0,0.0,0.0,0.0,0.0,0.0,0.0,0.0,0.0,0.0,0.0,0.0,0.0,8.147890745991662,36.12248988440022,62.448244483614424,81.69820577498763,93.21223853540035,97.63653848099828,95.3970073337864,87.01562984598246,69.85435432278254,48.90078614338907,22.396307151188527,1.1403014544156604,0.0,0.0,0.0,0.0,0.0,0.0,0.0,0.0,0.0,0.0,0.0,0.0,8.243973776204378,35.24305634620975,61.239241173399,79.22493896619609,89.57128909778022,90.1345945313848,88.27964442479116,80.2004555345993,65.6498505317904,45.82289321960613,20.637440074807593,0.7831015882103619,0.0,0.0,0.0,0.0,0.0,0.0,0.0,0.0,0.0,0.0,0.0,0.0,8.106570064604849,31.68449935159585,60.00285668877062,78.33181484079915,88.70554614679622,92.22303137979073,90.98639797539495,78.84010900581045,64.894130117993,44.916078507002716,20.14283649700276,0.7007091452041222,0.0,0.0,0.0,0.0,0.0,0.0,0.0,0.0,0.0,0.0,0.0,0.0,8.505090612196962,34.80346403699821,59.68672858418474,77.9472338001809,88.60946311658354,93.30857048538047,91.71448829501206,83.71794076759376,69.67562992979619,47.073217211208366,21.461862344404768,1.2366334043957654,0.0,0.0,0.0,0.0,0.0,0.0,0.0,0.0,0.0,0.0,0.0,0.0,7.735679611193077,29.911941688008444,59.672789077210886,69.42820368101009,87.64763713538683,91.00008856260143,88.82925927118929,80.75007038099741,66.07575225379547,33.84163805580151,20.65113066201407,1.0442184242029462,0.0,0.0,0.0,0.0,0.0,0.0,0.0,0.0,0.0,0.0,0.0,0.0,8.656184911002967,33.85532864300798,45.87815340796681,53.10528993438119,56.41642068020899,82.66003175618431,89.33755343620062,55.12502492698732,65.21000930281147,44.242750536211545,20.417643920201822,0.9344448067837566,0.0,0.0,0.0,0.0,0.0,0.0,0.0,0.0,0.0,0.0,0.0,0.0,7.378479744987778,26.47709781778759,51.05792484759473,75.94118939478126,87.07039219480836,69.4145130938036,75.89986871339444,65.59483926319712,59.61802672838498,43.28117347478222,20.706141930607355,1.167931548596001,0.0,0.0,0.0,0.0,0.0,0.0,0.0,0.0,0.0,0.0,0.0,0.0,6.457725525410496,23.055695615005835,23.1243974708056,13.149186712400624,35.408090151989626,48.021352605198615,89.29648167458116,81.28599464018905,67.51849122559052,47.11453789259519,21.18705492120571,1.5251314148012989,0.0,0.0,0.0,0.0,0.0,0.0,0.0,0.0,0.0,0.0,0.0,0.0,9.988901345611444,36.25989359599975,60.524841440988396,58.68358192160122,88.33465569338448,91.57733350317987,90.18935688021072,82.56369980620423,68.7551246299863,48.25483934701085,22.052797872189696,1.799938838000358,0.0,0.0,0.0,0.0,0.0,0.0,0.0,0.0,0.0,0.0,0.0,0.0,10.428742574590377,36.17750115299351,59.31558921100558,75.59768011578244,87.68870889700625,91.79712965778565,89.35124402340708,70.95333509581138,67.8893816790023,46.27642503579153,21.99778660359641,1.7862482507938833,0.0,0.0,0.0,0.0,0.0,0.0,0.0,0.0,0.0,0.0,0.0,0.0,10.291338862990845,35.504173182202344,51.90972829160485,56.22400570001617,72.09388546999445,80.36524042061177,71.84645922120832,69.86804490998901,59.61802672838498,29.293624985810556,14.042310837797569,0.7007091452041222,0.0,0.0,0.0,0.0,0.0,0.0,0.0,0.0,0.0,0.0,0.0,0.0,1.4290483845885846,5.963121947605669,9.425595912006854,17.765901638191334,9.521927861986956,6.320321813810966,21.68165849901053,30.035654812401496,2.280851828598712,16.996490637187453,8.065498302985425,0.013690587206474859,0.0,0.0,0.0,0.0,0.0,0.0,0.0,0.0,0.0,0.0,0.0,0.0,5.688314524406608,17.697199782391575,28.318108417407373,26.531860166613487,39.708676973194464,32.302816053793734,30.37916409140032,33.168310085010326,31.95930677479491,9.865437140985783,4.561703657197423,0.0,0.0,0.0,0.0,0.0,0.0,0.0,0.0,0.0,0.0,0.0,0.0,0.0,1.6899163008137783,7.158434670614617,26.72427514680632,38.70553031061094,65.33372242720453,89.66737212799295,72.40976465481292,70.3763390750003,65.81463541780289,28.73031955220597,13.794884589011454,0.8244222695971769,0.0,0.0,0.0,0.0,0.0,0.0,0.0,0.0,0.0,0.0,0.0,0.0,12.214990825384259,13.259209249587204,40.725514222984465,64.60563210758747,91.79712965778565,95.56179221979885,94.55889447698273,87.30412785638798,73.00070018259785,26.792977002606076,13.520077165812395,1.1129202800027107,0.0,0.0,0.0,0.0,0.0,0.0,0.0,0.0,0.0,0.0,0.0,0.0,14.564295590015345,44.09165623740554,69.84041481580867,88.18356139457848,98.29617586458296,101.74471032201029,99.99978275260322,90.6565792836026,75.1578388868035,52.8441730983886,24.731921328613137,2.6930629633972996,0.0,0.0,0.0,0.0,0.0,0.0,0.0,0.0,0.0,0.0,0.0,0.0,14.38582011679639,42.51151355401095,66.40557094558781,82.71504302477763,91.75580897639885,94.27014754680978,93.56943840160568,84.34994805699809,69.57954689958348,49.06557102940154,23.839046122983586,2.569349839004245,0.0,0.0,0.0,0.0,0.0,0.0,0.0,0.0,0.0,0.0,0.0,0.0,14.207095723810045,41.316200831002,64.28950400300161,83.45682393160119,93.26724980399366,51.55252842539955,95.53416212561852,86.68581115419012,72.4237041617868,49.79391026878602,24.40235155658818,3.063953416809073,0.0,0.0,0.0,0.0,0.0,0.0,0.0,0.0,0.0,0.0,0.0,0.0,14.000990156410749,40.58811051138492,63.877292868203,80.37917992758562,43.18484152480213,73.52268493481563,74.86934087639797,56.32033764999627,35.97139558559421,27.988289725615026,13.808824095985322,1.30533526019553,0.0,0.0,0.0,0.0,0.0,0.0,0.0,0.0,0.0,0.0,0.0,0.0,1.5525125892142488,3.435092789988237,3.764662562013196,12.750915084575903,28.34573851158772,38.87056411639082,50.00001583618529,39.44756013720188,39.03534900240329,18.507682545014887,9.288192200407323,0.590935527784933,0.0,0.0,0.0,0.0,0.0,0.0,0.0,0.0,0.0,0.0,0.0,0.0,0.6046261149914078,2.5969799331845853,9.728033429386253,15.100219849206988,15.63614410839863,16.707743707014526,11.486651585999795,12.97046231941428,11.170523481413925,6.1005256592051955,2.816776087790355,0.0,0.0,0.0,0.0,0.0,0.0,0.0,0.0,0.0,0.0,0.0,0.0,0.0,0.2611168359925841,0.24742624878610925,4.3555980897981295,7.337159063600962,13.011783000801096,9.343203469000613,11.156832894207447,6.7051517741966045,13.684862051824874,11.335557287193794,5.482208957007314,0.1374037115995295,0.0,0.0,0.0,0.0,0.0,0.0,0.0,0.0,0.0,0.0,0.0,0.0,14.880423694601216,40.6018010985914,62.516946339414176,77.87853194438117,48.90078614338907,42.333038080792,56.73254878479486,44.57256922800389,70.54112396101279,23.23442000799217,23.976449834583114,3.2150477156150776,0.0,0.0,0.0,0.0,0.0,0.0,0.0,0.0,0.0,0.0,0.0,0.0,4.135801935192359,20.30762138301524,40.821597253197176,46.798409788009316,40.84897842761011,44.558878640797424,52.37695069499674,44.95739918838953,60.29110577940877,34.514966026592674,17.697199782391575,2.4595762215850563,0.0,0.0,0.0,0.0,0.0,0.0,0.0,0.0,0.0,0.0,0.0,0.0,16.487947552408755,43.0474378132026,58.87599690179404,69.01624146597888,80.65398735078469,84.4049593255914,81.03856839140292,73.74273000918879,60.19502274919604,35.449161913609046,18.054399648596874,2.6380516948040102,0.0,0.0,0.0,0.0,0.0,0.0,0.0,0.0,0.0,0.0,0.0,0.0,15.952272212984505,36.97429332841035,46.688636170590115,52.52804499380273,55.09739483280698,61.280561854785816,74.04491860680079,62.90177629979982,36.32859545179951,20.060444053996527,9.961520171198496,1.057909011409421,0.0,0.0,0.0,0.0,0.0,0.0,0.0,0.0,0.0,0.0,0.0,0.0,7.873083322792606,19.153629341393106,30.310462235600557,81.38207767040177,89.942179551192,93.89925709339802,91.32990725439377,83.82771438501295,69.7717129600089,48.0763638737919,11.500342173206274,3.380081521394948,0.0,0.0,0.0,0.0,0.0,0.0,0.0,0.0,0.0,0.0,0.0,0.0,16.55664940820852,41.34358200541495,38.32094926999269,53.46248980058649,68.6040303311803,89.8047758395925,86.93298848320883,79.2662596475829,66.213155965395,47.08715671818224,13.712492146005216,1.9647237240128368,0.0,0.0,0.0,0.0,0.0,0.0,0.0,0.0,0.0,0.0,0.0,0.0,2.816776087790355,14.30342767379015,24.979347577399245,27.21887872461114,40.0932580138127,57.84546906479757,63.396379877604645,61.541429771010996,69.77196187977627,32.82480080601151,10.675919903609094,1.4014182904082444,0.0,0.0,0.0,0.0,0.0,0.0,0.0,0.0,0.0,0.0,0.0,0.0,18.535312639195226,46.42751933459754,69.93674676578877,86.28729060659799,95.7405166127852,99.3951566376118,96.78473503698817,88.18331247481106,73.72903942198232,52.52804499380273,26.14727912599525,3.902066273612725,0.0,0.0,0.0,0.0,0.0,0.0,0.0,0.0,0.0,0.0,0.0,0.19241498019281936,18.93383318678734,45.149814168582346,67.83437041040902,81.40970776458211,90.86293377076927,94.38017008399638,95.31461489078012,83.75926144898058,69.75802237280243,49.73889900019272,25.33654744360454,4.039469985212255,0.0,0.0,0.0,0.0,0.0,0.0,0.0,0.0,0.0,0.0,0.0,0.7007091452041222,19.82695731218428,46.523602364810245,68.79619639160572,84.33625746979166,92.8413480819886,95.43807909540578,93.15722726680708,85.40785706840755,71.87408931538867,51.511207744012744,26.463158310813732,4.300586821204838,0.0,0.0,0.0,0.0,0.0,0.0,0.0,0.0,0.0,0.0,0.0,0.5082941650113029,17.10626425460664,33.017215786204325,49.834982030405435,56.03183963959074,69.70301110420914,59.86520405740371,78.57924108958527,42.64891726561048,44.58625981521037,48.69468057598977,23.86642729739653,3.88837568640625,0.0,0.0,0.0,0.0,0.0,0.0,0.0,0.0,0.0,0.0,0.0,0.0,15.828559088591447,24.429732731001128,22.725876923213487,25.116751288998774,39.887152446413424,52.01975082879144,30.997480793598204,29.060138243998317,29.857179339182547,18.535312639195226,5.619612668606844,2.2945424158051866,0.0,0.0,0.0,0.0,0.0,0.0,0.0,0.0,0.0,0.0,0.0,0.0,6.3479519079913045,18.974904948406767,17.985697792797104,85.7926870287932,97.58177613217235,101.85473285919687,96.67471249980156,88.774248002596,74.42974856718645,53.215063551800384,26.312064012007728,4.3142774084113125,0.0,0.0,0.0,0.0,0.0,0.0,0.0,0.0,0.0,0.0,0.0,1.5525125892142488,21.887764066409837,50.439608145396846,75.41895572279608,92.36043509139027,102.34933643700171,105.46830112240409,102.08821960100911,92.52521997740273,75.06175585659079,39.69498638598798,21.70928859319088,4.644096100203663,0.0,0.0,0.0,0.0,0.0,0.0,0.0,0.0,0.0,0.0,0.0,1.6212144450140136,21.956465922209592,49.57386519441285,72.83591529658538,88.58208194217056,97.82895346119108,100.79682384778744,97.732621511211,89.00773474440824,74.20970349281328,51.68993213699909,26.84798827119937,4.767809224596717,0.0,0.0,0.0,0.0,0.0,0.0,0.0,0.0,0.0,0.0,0.0,1.9099613751869384,22.574782624407483,49.821291443198966,71.53058003638985,86.32861128798483,94.66866809440191,97.19694617178673,94.14668334218412,85.95747191480567,72.34106279901314,51.978430147404616,26.889308952586184,4.644096100203663,0.0,0.0,0.0,0.0,0.0,0.0,0.0,0.0,0.0,0.0,0.0,2.0473650867864674,22.16257148960889,49.07926161660802,71.36554623060997,86.42469431819755,83.16807700142827,98.722077586588,96.01532403598426,87.89481446440556,73.74273000918879,51.49751715680626,26.710584559599837,4.699107368796953,0.0,0.0,0.0,0.0,0.0,0.0,0.0,0.0,0.0,0.0,0.0,2.170829291412132,21.461862344404768,47.320643459994486,48.48857500859048,43.514660216594464,48.95579741198235,22.01147719080289,68.67273218698007,85.6826644916066,70.67877659237972,50.15111013499131,25.18545314479854,4.781499811803191,0.0,0.0,0.0,0.0,0.0,0.0,0.0,0.0,0.0,0.0,0.0,2.102127435612367,20.82985505500041,30.035654812401496,53.66859536798578,82.98960152820929,71.36579515037738,95.45201860237965,92.48414821578328,84.99564593360894,71.73668560378914,51.89603770439838,26.47709781778759,4.850201667602957,0.0,0.0,0.0,0.0,0.0,0.0,0.0,0.0,0.0,0.0,0.0,2.4456367146111906,21.200745508412187,45.60309706500036,54.314044324829226,66.06206166658899,29.00512697540503,62.43480281617535,78.97751271741001,66.15814469680171,38.49942474321164,24.979347577399245,11.679066566192615,4.465620626984709,0.0,0.0,0.0,0.0,0.0,0.0,0.0,0.0,0.0,0.0,0.0,2.0473650867864674,3.599877676000716,14.46821255980263,18.823810649600762,23.2754917696116,44.28407121759836,65.63615994458394,38.95295655939705,36.65841414359186,22.135190315195945,18.507682545014887,11.156832894207447,4.850201667602957,0.0,0.0,0.0,0.0,0.0,0.0,0.0,0.0,0.0,0.0,0.0,1.3190258474020051,7.570645805413205,48.612288132983544,51.70362272420555,61.52773918380453,65.2926506655851,61.582750452397825,69.30449055661703,61.89887855698369,57.94155209501028,40.120888107993046,25.85878111558971,5.262412802401545,0.0,0.0,0.0,0.0,0.0,0.0,0.0,0.0,0.0,0.0,0.0,0.1374037115995295,1.27770516601519,5.19371094660178,8.010487034392133,8.29898504479767,13.245269742613337,16.35054384080923,38.128534289799866,33.59446072678279,25.460260567997604,16.474256965202287,4.712797956003427,0.0,0.0,0.0,0.0,0.0,0.0,0.0,0.0,0.0,0.0,0.0,0.0,3.3250702528016576,24.30601960660807,50.851819280195436,70.82987089118572,84.78978928597705,93.12984609239412,95.75420719999168,92.97875179358812,85.5315701928006,71.81907804679538,52.21216580898425,27.672410540796548,5.35849583261426,0.0,0.0,0.0,0.0,0.0,0.0,0.0,0.0,0.0,0.0,0.0,3.613568263207191,24.319710193814544,49.31299727818766,69.38713191939065,83.3883709955688,75.99595174360716,95.0258679606072,91.41229969740002,83.86903506639976,70.08784106459477,15.746166645585213,27.26019940599795,5.578540906987419,0.0,0.0,0.0,0.0,0.0,0.0,0.0,0.0,0.0,0.0,0.0,3.7099002131872965,25.13044187620525,52.404580789177075,74.6632353089987,90.06589267558508,98.95556432840029,101.48384240578508,86.93298848320883,68.82382648578607,75.92724988780738,54.31429324459661,23.509227431191235,5.592231494193894,0.0,0.0,0.0,0.0,0.0,0.0,0.0,0.0,0.0,0.0,0.0,3.902066273612725,25.33654744360454,52.33563001360992,74.40236739277348,89.74976457099919,98.79077944238779,101.44252172439829,98.81816061680072,90.2580587360105,75.68007255878867,54.685183698008395,17.422392359192518,5.702005111613084,0.0,0.0,0.0,0.0,0.0,0.0,0.0,0.0,0.0,0.0,0.0,4.0671000793925955,25.432879393584646,50.494619413990144,73.04202086398465,88.04615768297893,96.71603318118838,99.21668116439285,96.44122575798932,87.77110134001249,49.601495288593185,51.84102643580509,27.411293704803963,6.1005256592051955,0.0,0.0,0.0,0.0,0.0,0.0,0.0,0.0,0.0,0.0,0.0,4.286896233998363,25.59766427959713,50.65940430000261,70.81618030397925,84.666076161584,92.55285007158308,94.77869063158847,82.60502048759105,84.9269440778092,71.0907388074109,52.00606024158496,28.29072724299443,6.237929370804727,0.0,0.0,0.0,0.0,0.0,0.0,0.0,0.0,0.0,0.0,0.0,4.382979264211079,26.16096971320172,51.2227097336072,73.11072271978442,87.57893527958706,95.72657710581132,98.62574563660792,95.97400335459743,66.91386511059912,74.22364299978712,53.69597654239874,28.249406561607607,6.1142162464116705,0.0,0.0,0.0,0.0,0.0,0.0,0.0,0.0,0.0,0.0,0.0,2.308233003011661,9.65933157358649,31.18989577379102,53.33877667619344,67.14735185241139,71.66798374798938,75.41870680302871,89.95587013839848,81.91800192959342,68.63141150559325,49.86261212458578,26.64188270380007,5.963121947605669,0.0,0.0,0.0,0.0,0.0,0.0,0.0,0.0,0.0,0.0,0.0,4.465620626984709,17.367381090599224,37.647621299201525,51.48382656959979,48.84577487479578,84.52867244998446,43.294864061988704,82.00039437259964,52.99526739719462,48.69468057598977,28.428130954593957,14.811721838801455,4.767809224596717,0.0,0.0,0.0,0.0,0.0,0.0,0.0,0.0,0.0,0.0,0.0,1.33271643460848,8.573792467996729,40.84897842761011,30.20043969841397,58.86230631458757,68.43899652540043,69.78565246698277,33.55314004539597,32.921132755991614,32.97614402458491,23.825106616009716,13.561397847199215,4.039469985212255,0.0,0.0,0.0,0.0,0.0,0.0,0.0,0.0,0.0,0.0,0.0,4.754118637390242,12.558251184615694,36.2325124215868,50.288513846590824,33.2920232094034,75.76246500179492,80.29678748457937,62.11867471158946,54.56171949338273,35.82030128678821,25.089370114585822,12.86068870199509,4.259515059585413,0.0,0.0,0.0,0.0,0.0,0.0,0.0,0.0,0.0,0.0,0.0,0.1374037115995295,12.791986846195329,3.036572242396124,4.671726194384003,17.94437711141029,36.21857291461293,46.72970793220954,36.946912153997395,33.237011940810106,37.812406185214,30.667662101805853,17.394762265012176,5.001295966408961,0.0,0.0,0.0,0.0,0.0,0.0,0.0,0.0,0.0,0.0,0.0,0.0,15.375027272406047,16.254460810596512,15.58113283980534,61.280561854785816,51.70362272420555,30.35178291698737,38.69183972340446,25.267845587804786,22.10780914078299,20.692451343400887,5.262412802401545,2.8854779435901188,0.0,0.0,0.0,0.0,0.0,0.0,0.0,0.0,0.0,0.0,0.0,1.36034652878882,4.176873696811785,10.332410624610269,38.84293402221047,87.94982573299885,95.2185318605674,97.93872707861028,84.11646131518587,88.14224071319167,74.42974856718645,53.03633915881404,28.99143638819855,6.58143864980355,0.0,0.0,0.0,0.0,0.0,0.0,0.0,0.0,0.0,0.0,0.0,5.33111465820131,27.741112396596307,52.404331869409674,71.43449700617712,84.666076161584,92.18171069840392,94.1190532480038,91.01377914980792,83.19570709560858,69.97781852740819,51.2777210022005,27.974599138408557,6.237929370804727,0.0,0.0,0.0,0.0,0.0,0.0,0.0,0.0,0.0,0.0,0.0,5.303733483788361,27.42498429201044,51.68993213699909,70.23893536340078,82.77005429337092,89.95587013839848,91.89321268799836,89.47495714780013,82.330213064392,69.71695061118301,51.40143412659355,28.304417830200897,6.457725525410496,0.0,0.0,0.0,0.0,0.0,0.0,0.0,0.0,0.0,0.0,0.0,5.674623937200134,27.672410540796548,52.21191688921686,71.21445193180395,84.39101981861755,91.75580897639885,93.72053270041168,94.9847961989878,83.5942276432007,71.04966704579151,52.52804499380273,28.950115706811733,6.7051517741966045,0.0,0.0,0.0,0.0,0.0,0.0,0.0,0.0,0.0,0.0,0.0,5.7846464743867125,27.521316241990537,51.525147250986606,69.9780674471756,83.18201650840211,90.28568883019085,92.14063893678448,83.27834845838224,82.01408495980611,69.27710938220407,50.72810615580239,28.043300994208323,6.856246073002608,0.0,0.0,0.0,0.0,0.0,0.0,0.0,0.0,0.0,0.0,0.0,5.8394088232126125,27.37022194318454,49.71126890601239,71.75037619099561,85.00958544058281,82.5226280445848,95.35568665239956,92.25041255420366,84.2125443453986,71.32447446899054,50.92052113599521,28.18070470580785,6.897566754389424,0.0,0.0,0.0,0.0,0.0,0.0,0.0,0.0,0.0,0.0,0.0,5.33111465820131,23.083325709186173,43.5557319782139,62.24238783598252,44.70997293960343,48.035043192405084,82.71479410501023,81.46471903317537,74.75931833921138,55.20741736999357,50.17849130940426,24.67715897978724,7.048661053195429,0.0,0.0,0.0,0.0,0.0,0.0,0.0,0.0,0.0,0.0,0.0,6.47166503238436,24.48474399959441,40.47808797419835,55.4409041118058,57.14475991959345,69.40082250659712,77.38367944680894,73.44029249180939,58.559868797208175,33.93772108601422,24.594517617013608,17.614807339385333,5.0836884094152,0.0,0.0,0.0,0.0,0.0,0.0,0.0,0.0,0.0,0.0,0.0,1.5251314148012989,17.614807339385333,32.66001591999903,43.748146958406714,62.159746473208884,65.7596241492096,73.68771874059549,87.05670160760191,78.82666733837137,66.52903515021349,48.63966930739649,26.65557329100655,7.364540238013911,0.0,0.0,0.0,0.0,0.0,0.0,0.0,0.0,0.0,0.0,0.0,4.891522348989772,15.375027272406047,31.95930677479491,45.8915950754059,42.594154916784575,44.11928633158588,65.910967367783,62.943096981186635,71.2283914387778,57.474578611385795,49.354069039807094,27.45261438619077,7.625657074006496,0.0,0.0,0.0,0.0,0.0,0.0,0.0,0.0,0.0,0.0,0.0,6.622759331190365,27.342591849004197,51.19532855919426,70.40396916918066,65.71855238759017,88.37572745500391,90.09327384999806,87.23542600058825,79.58213883240141,34.92717716139127,50.01370642339178,27.61739927220325,7.543264631000255,0.0,0.0,0.0,0.0,0.0,0.0,0.0,0.0,0.0,0.0,0.0,6.430344350997545,27.09541451998548,50.480928826783654,41.49492522398834,70.96727460278524,91.04140924398823,93.29463097840662,87.18041473199493,68.1504985149949,53.55857283079921,40.36806543701177,21.86038289199688,5.729635205793423,0.0,0.0,0.0,0.0,0.0,0.0,0.0,0.0,0.0,0.0,0.0,3.9433869549995397,1.0442184242029462,14.756710570208163,29.060138243998317,65.71855238759017,44.76498420819671,38.99427724078386,60.112630306189814,60.81333945139393,31.67080876438937,21.448171757198292,15.292634829399807,7.96916635300532,0.0,0.0,0.0,0.0,0.0,0.0,0.0,0.0,0.0,0.0,0.0,7.158434670614617,30.640280927392908,56.88364308360085,76.94408713759739,90.67026987080908,98.36487772038271,100.01347333980968,96.33120322080276,88.05984827018541,74.31972602999986,54.98762121538779,30.076975493788318,8.065498302985425,0.0,0.0,0.0,0.0,0.0,0.0,0.0,0.0,0.0,0.0,0.0,7.172374177588482,29.472349378796906,52.967886222781665,71.57165179800926,84.07514063379905,91.08248100560766,92.93743111220131,90.71159055219591,82.632401662004,70.34895790058737,51.99212073461109,29.403647522997137,8.037868208805085,0.0,0.0,0.0,0.0,0.0,0.0,0.0,0.0,0.0,0.0,0.0,4.0671000793925955,29.01881756261149,52.33563001360992,70.81593138421185,83.77295203618705,90.94507729400812,92.80002740060179,65.32003183999808,83.19595601537598,70.00544862158854,51.77232458000533,29.101458925385128,7.9280945913858965,0.0,0.0,0.0,0.0,0.0,0.0,0.0,0.0,0.0,0.0,0.0,7.158434670614617,28.08462167559513,50.72810615580239,68.63141150559325,81.05225897860942,87.96351632020529,89.81846642679895,77.69980755139481,81.07988907278974,16.69405311980805,26.270992250388304,28.86772326380549,8.477709437784013,0.0,0.0,0.0,0.0,0.0,0.0,0.0,0.0,0.0,0.0,0.0,7.488253362406965,22.95961258479312,50.16480072219779,67.84806099761549,79.98065937999351,86.90560730879587,77.0401701678101,58.65620074718828,22.698495748800536,61.11552804900594,39.653665704601174,28.469202716213378,8.642494323796491,0.0,0.0,0.0,0.0,0.0,0.0,0.0,0.0,0.0,0.0,0.0,7.419551506607203,27.590018097790303,50.00001583618529,67.83461933017641,80.296538564812,87.35913912498128,48.69468057598977,88.22463315619791,79.69216136958798,67.5871930813903,50.01370642339178,24.34734028799489,8.436388756397196,0.0,0.0,0.0,0.0,0.0,0.0,0.0,0.0,0.0,0.0,0.0,7.3234684763944875,28.139632944188428,51.85471702301156,70.55506346798666,83.48445402578152,90.87662435797577,92.93743111220131,90.6565792836026,83.03092220959611,70.14285233318806,50.46698931980979,28.99143638819855,8.505090612196962,0.0,0.0,0.0,0.0,0.0,0.0,0.0,0.0,0.0,0.0,0.0,7.405860919400728,27.823504839602553,50.041087597804726,69.84066373557607,83.36074090138845,90.67051879057648,92.64893310179579,89.99719081978529,82.31652247718552,67.40846868840394,49.821291443198966,28.73031955220597,8.573792467996729,0.0,0.0,0.0,0.0,0.0,0.0,0.0,0.0,0.0,0.0,0.0,4.6167149257907125,26.902999539792656,45.60309706500036,61.15684873039275,79.70585195679445,80.35179875317267,73.53662444178948,81.12096083440917,68.72749453580596,61.34926371058557,44.60019932218423,28.277036655787953,8.683566085415917,0.0,0.0,0.0,0.0,0.0,0.0,0.0,0.0,0.0,0.0,0.0,7.5845853123870715,23.522918018397714,49.244295422387886,66.43295212000078,78.29074307917973,84.87218172898328,87.15303355758198,84.89956290339623,46.8534210566026,54.56171949338273,48.70837116319625,23.660321729997243,9.05470545859508,0.0,0.0,0.0,0.0,0.0,0.0,0.0,0.0,0.0,0.0,0.0,7.790690879786365,27.040403251392192,48.39224305861038,65.63615994458394,77.80983008858136,84.74846860459022,87.0980222889887,84.56974421160389,77.19151338638349,56.9660355266071,45.12218407440201,21.61295664321077,8.18896250761109,0.0,0.0,0.0,0.0,0.0,0.0,0.0,0.0,0.0,0.0,0.0,6.6914611869901295,27.57632751058383,43.26723396780836,56.430360187182856,70.8433125586248,61.06051678041265,63.64380612639077,67.77960806158312,60.332426460795574,59.755430439984515,44.03664496881225,17.18865669761288,8.422698169190724,0.0,0.0,0.0,0.0,0.0,0.0,0.0,0.0,0.0,0.0,0.0,6.4029631765845965,26.353384693394545,42.6902379469973,58.188978343796386,70.98096518999172,76.84800410738467,82.79743546778387,77.31497759100915,70.76116903538595,68.37029466960067,51.112936116188024,29.77453797640891,8.450079343603674,0.0,0.0,0.0,0.0,0.0,0.0,0.0,0.0,0.0,0.0,0.0,7.034970465988952,21.57188488159135,42.745249215590576,57.91417092059734,67.4360987825843,73.59163571038276,79.14254652318988,74.1412505567809,73.11072271978442,60.057619037596524,39.61234502321435,26.44946772360725,8.601173642409679,0.0,0.0,0.0,0.0,0.0,0.0,0.0,0.0,0.0,0.0,0.0,7.048661053195429,26.573180848000305,38.32094926999269,56.650156341788616,64.01469657980253,55.11108542001346,29.279934398604087,53.22875413900685,66.79015198620607,53.70966712960521,42.003219388999646,26.284682837594772,8.724886766802733,0.0,0.0,0.0,0.0,0.0,0.0,0.0,0.0,0.0,0.0,0.0,7.282147795007671,25.89985287720914,45.767881951012846,57.460639104411925,70.60982581681256,73.64664697897608,79.8295650811875,71.91540999677548,63.726198569397,50.97553240458849,40.20328055099929,25.625045454010078,3.4761645516076616,0.0,0.0,0.0,0.0,0.0,0.0,0.0,0.0,0.0,0.0,0.0,6.650140505603316,27.75480298380279,49.50516333861308,66.73514071761278,78.6203128512047,85.36653638702072,87.31781844359446,85.05065720220223,78.02962624318717,66.59773700601326,50.00001583618529,29.32125507999089,9.411905324800381,0.0,0.0,0.0,0.0,0.0,0.0,0.0,0.0,0.0,0.0,0.0,6.82886489858966,27.590018097790303,48.790763606202475,65.96597863637629,77.89222253158763,84.50104235580413,41.19248770660895,46.96344359378919,58.29900088098298,65.85595609918971,48.84577487479578,28.77164023359278,8.738577354009207,0.0,0.0,0.0,0.0,0.0,0.0,0.0,0.0,0.0,0.0,0.0,7.99679644718566,15.08652926200051,47.71916400758659,64.56431142620065,76.46317414699904,64.5916926006136,60.27741519220229,37.702632567794815,9.109716727188369,30.653971514599377,33.73161551861492,23.811416028803247,8.917301746995554,0.0,0.0,0.0,0.0,0.0,0.0,0.0,0.0,0.0,0.0,0.0,7.350849650807437,28.304417830200897,51.03054367318178,69.01624146597888,81.5608020633881,88.73292732120919,90.86268485100192,76.1333554552067,82.16517925861213,69.56560739260962,52.349569520583785,30.86007708199867,9.521927861986956,0.0,0.0,0.0,0.0,0.0,0.0,0.0,0.0,0.0,0.0,0.0,7.6943589298062625,27.328901261797718,48.433563739997176,65.27871115861124,77.12256261081635,83.84165389198681,86.17726806941141,84.28124620119834,77.53502266538231,66.18577479098205,36.342286039005984,24.78693259720643,9.865437140985783,0.0,0.0,0.0,0.0,0.0,0.0,0.0,0.0,0.0,0.0,0.0,7.515883456587306,27.686101128003017,31.368371247009968,66.32292958281421,43.11613966900235,85.69660399858046,86.58972812397741,66.07575225379547,78.0570074176001,66.4192615327943,50.38459687680356,29.96695295660173,9.728033429386253,0.0,0.0,0.0,0.0,0.0,0.0,0.0,0.0,0.0,0.0,0.0,7.515883456587306,27.39760311759749,48.735752337609206,65.96597863637629,77.10887202360986,63.23159499159217,87.16672414478847,84.00643877799929,77.35629827239597,66.08944284100195,49.67019714439296,29.70583612060915,10.002840852585312,0.0,0.0,0.0,0.0,0.0,0.0,0.0,0.0,0.0,0.0,0.0,7.763060785606027,19.606912237811123,48.24114875980436,64.82542826219324,76.3807817039928,83.18201650840211,85.21569100798209,82.64609224921048,76.0235818377875,47.842628212212254,33.91033991160127,28.249406561607607,9.178418582988137,0.0,0.0,0.0,0.0,0.0,0.0,0.0,0.0,0.0,0.0,0.0,7.763060785606027,26.985391982798895,47.70522450061273,64.72909631221314,76.66927971439833,45.56177638361355,60.84072062580689,13.355292279799919,73.522933854583,65.77356365618347,51.23640032081369,30.502877215793372,9.453226006187194,0.0,0.0,0.0,0.0,0.0,0.0,0.0,0.0,0.0,0.0,0.0,7.5982758995935455,27.09541451998548,48.598348626009674,65.66354111899687,77.79613950137491,58.60118947859498,87.96351632020529,69.7717129600089,33.14092891059739,3.531175820200952,5.399816514001075,4.987605379202487,2.926549705209544,0.0,0.0,0.0,0.0,0.0,0.0,0.0,0.0,0.0,0.0,0.0,7.5982758995935455,27.12279569439843,47.993971430785656,65.1965676353724,77.31497759100915,72.56110787338632,37.71632315500129,56.430360187182856,78.5105392337855,66.22684655260149,50.10978945360449,25.85878111558971,10.52482560480309,0.0,0.0,0.0,0.0,0.0,0.0,0.0,0.0,0.0,0.0,0.0,4.32821691538518,26.531860166613487,47.155858573982,52.08845268459121,76.57294776441823,53.819689666791795,33.882958737188325,51.167698465013906,65.34741301441102,43.26723396780836,11.843851452205095,0.7557204137974122,9.741724016592727,0.0,0.0,0.0,0.0,0.0,0.0,0.0,0.0,0.0,0.0,0.0,7.5982758995935455,26.80666758981255,48.11743563541132,65.6085298504036,76.61426844580501,60.167641574783104,42.923724688809536,63.410070464811135,66.25447664678181,66.28185782119478,48.612288132983544,12.888069876408037,5.853348330186478,0.0,0.0,0.0,0.0,0.0,0.0,0.0,0.0,0.0,0.0,0.0,7.5845853123870715,26.889308952586184,47.9252695749859,65.12761685980524,77.23258514800294,56.375348918589566,19.606912237811123,75.1578388868035,68.0954872464016,49.752589587399186,5.894420091805903,10.332410624610269,7.474562775200491,0.0,0.0,0.0,0.0,0.0,0.0,0.0,0.0,0.0,0.0,0.0,4.685416781590479,16.955169955800635,14.152333374984146,15.402657366586384,25.625045454010078,36.46599916339905,70.54112396101279,61.884939050009834,18.74141820659452,3.5724965015877665,15.965962800190981,11.582734616212509,6.9799591973956625,0.0,0.0,0.0,0.0,0.0,0.0,0.0,0.0,0.0,0.0,0.0,7.392170332194254,26.84798827119937,48.021352605198615,65.5535185818103,76.36709111678631,68.5076983812002,86.0948756264052,83.47076343857505,76.66927971439833,65.6085298504036,50.90683054878872,30.708982783192674,10.071542708385076,0.09608303021271446,0.0,0.0,0.0,0.0,0.0,0.0,0.0,0.0,0.0,0.0,6.4990462067973125,26.84798827119937,48.84577487479578,66.73514071761278,79.6784707823815,63.49271182758476,79.48605580218869,60.923113068813116,71.65429316078287,64.11102852978264,51.621230281199324,30.40654526581327,11.143142307000973,0.09608303021271446,0.0,0.0,0.0,0.0,0.0,0.0,0.0,0.0,0.0,0.0,6.045514390611907,26.669263878213023,47.568069708780605,59.97522659459028,76.42210238537959,73.77011118360173,70.67852767261232,79.04621457320975,54.369304513189896,56.77386946618167,50.89313996158224,30.956160112211386,10.057603201411213,0.11002253718657977,0.0,0.0,0.0,0.0,0.0,0.0,0.0,0.0,0.0,0.0,7.213445939207907,27.6450293663836,49.546484019999895,66.66643886181302,71.2283914387778,75.02043517520397,92.00323522518495,88.92534230140204,82.05540564119295,70.54112396101279,52.143463953184494,31.725820032982664,9.879127728192255,0.20610556739929425,0.0,0.0,0.0,0.0,0.0,0.0,0.0,0.0,0.0,0.0,6.320321813810966,22.32760529538876,40.25829181959257,58.436404592582505,68.76881521719277,74.85565028919149,79.07384466739009,84.28124620119834,77.24627573520941,66.33686908978808,50.53569117560957,30.750054544812087,10.195006913010742,0.08239244300623963,0.0,0.0,0.0,0.0,0.0,0.0,0.0,0.0,0.0,0.0,6.7051517741966045,24.773242009999947,39.969793809187045,38.56812659901141,32.742408363005275,53.44855029361264,73.01439076980432,53.44855029361264,67.73828738019631,54.7815156479885,42.71761912141025,10.68961049081557,8.752267941215681,0.0,0.0,0.0,0.0,0.0,0.0,0.0,0.0,0.0,0.0,0.0,6.4990462067973125,20.51372695041454,48.44725432720365,23.74271417300348,8.793588622602496,6.4440349382040205,26.353384693394545,49.546484019999895,84.03406887217962,60.744637595594156,39.20038280818316,27.93352737678913,11.294236605806976,0.2197961546057691,0.0,0.0,0.0,0.0,0.0,0.0,0.0,0.0,0.0,0.0,0.0,6.182918102211436,24.75955142279348,37.977439990993865,68.52138896840667,79.60976892658174,91.20619413000072,75.92749880757479,66.98256696639889,36.768187761011056,45.685489508006604,23.68770290441019,10.153935151391318,0.11002253718657977,0.0,0.0,0.0,0.0,0.0,0.0,0.0,0.0,0.0,0.0,6.1142162464116705,26.463158310813732,40.18958996379281,64.79779816801289,76.4768647342055,83.51183520019447,76.24337799239328,72.38238348039997,77.97461497459383,66.06206166658899,50.412226970983895,30.942469525004917,10.483753843183663,0.20610556739929425,0.0,0.0,0.0,0.0,0.0,0.0,0.0,0.0,0.0,0.0,7.103672321788719,26.202290394588534,47.4167264902072,64.61932269479394,77.01278899339717,84.67976674879047,86.96061857738917,51.209019146400735,79.6234595137882,67.381087513991,48.873156049208724,31.519714465583373,10.497444430390141,0.32981869179234885,0.0,0.0,0.0,0.0,0.0,0.0,0.0,0.0,0.0,0.0,6.622759331190365,26.078577270195478,47.746545181999544,56.2103151128097,42.97873595740283,17.16127552319993,85.50817173466586,84.94760441850258,74.9547203566129,57.58435222880498,17.10626425460664,24.594517617013608,10.593527460602855,0.32981869179234885,0.0,0.0,0.0,0.0,0.0,0.0,0.0,0.0,0.0,0.0,6.883627247415558,25.72137740399018,47.11453789259519,64.82542826219324,78.09807917921951,84.37981842908495,80.78392346936249,13.822514683191798,10.098923882798026,31.12119391799126,40.10719752078658,22.080179046602648,7.447181600787543,0.0,0.0,0.0,0.0,0.0,0.0,0.0,0.0,0.0,0.0,0.0,5.9081106790123785,25.762449165609606,47.30695287278801,65.14130744701173,77.8509018502008,18.28788639040912,16.37817393498957,15.649834695605106,29.101458925385128,37.812406185214,40.35437484980529,30.722673370399146,10.579836873396381,0.0,0.0,0.0,0.0,0.0,0.0,0.0,0.0,0.0,0.0,0.0,4.204503790992123,23.605310461403946,45.218516024382104,64.78410758080642,54.71281379218873,23.74271417300348,63.73988915660347,65.910967367783,52.143463953184494,53.51725214941239,25.886162290002666,31.17620518658455,5.949431360399193,0.0,0.0,0.0,0.0,0.0,0.0,0.0,0.0,0.0,0.0,0.0,7.378479744987778,14.811721838801455,38.018511752613286,50.52200058840309,2.8717873563836447,6.622759331190365,9.453226006187194,20.335251477195584,43.17115093759564,64.82542826219324,41.618389428614,1.4290483845885846,10.703549997789432,0.0,0.0,0.0,0.0,0.0,0.0,0.0,0.0,0.0,0.0,0.0,6.430344350997545,25.460260567997604,46.42751933459754,63.86360228099653,75.62506129019539,85.99879259619247,88.48574999219046,82.7287336119841,76.3257704353995,56.51275263018909,49.6975783188059,30.420484772787127,11.788840183611805,0.0,0.0,0.0,0.0,0.0,0.0,0.0,0.0,0.0,0.0,0.0,6.77385362999637,24.49843458680089,44.503867372204134,63.025489424192884,76.35315160981246,66.15814469680171,72.2175985943875,85.18806091380178,77.89222253158763,65.99335981078924,48.515956183003425,29.80216807058925,10.208946419984603,0.0,0.0,0.0,0.0,0.0,0.0,0.0,0.0,0.0,0.0,0.0,6.677770599783655,24.70454015420018,44.929769094209185,61.93995031860312,66.35055967699452,76.16073662961962,73.41291131739644,72.47846651061269,65.10023568539228,56.69122810340805,43.72076578399376,29.651073771783253,11.143142307000973,0.0,0.0,0.0,0.0,0.0,0.0,0.0,0.0,0.0,0.0,0.0,6.4029631765845965,24.223627163601826,43.96819203277987,60.565913202607824,73.46767366622234,61.541429771010996,51.34642285800025,82.50893745737834,12.572190691589556,19.868029073803697,22.32760529538876,30.88745825641162,10.373731305997085,0.0,0.0,0.0,0.0,0.0,0.0,0.0,0.0,0.0,0.0,0.0,6.4440349382040205,24.34734028799489,44.3664636606046,61.06051678041265,73.28919819300339,80.59897608219141,54.63042134918249,51.2777210022005,76.66927971439833,65.00390373541221,49.67019714439296,30.91508835059196,11.77514959640533,0.08239244300623963,0.0,0.0,0.0,0.0,0.0,0.0,0.0,0.0,0.0,0.0,6.0731444847922464,24.731921328613137,45.64441774638718,63.10788186719912,75.55635943439563,82.7287336119841,77.01278899339717,72.82197578961151,44.66890117798399,57.95549160198416,46.15271191139848,29.115149512591604,11.52797226738661,0.08239244300623963,0.0,0.0,0.0,0.0,0.0,0.0,0.0,0.0,0.0,0.0,5.8394088232126125,23.44052557539147,36.98823283538421,56.03183963959074,69.23603762058465,66.66643886181302,68.74143404277982,50.06871769198507,60.95074316299346,51.34642285800025,44.84737665120296,29.073828831204793,4.0120888107993045,0.0,0.0,0.0,0.0,0.0,0.0,0.0,0.0,0.0,0.0,0.0,1.4838107334144843,7.873083322792606,22.080179046602648,25.570283105184174,52.26692815781014,72.90461715238514,68.02678539060184,67.65589493719007,61.514048596598045,47.22431151001438,32.82480080601151,25.034358845992536,9.631701479406148,0.0,0.0,0.0,0.0,0.0,0.0,0.0,0.0,0.0,0.0,0.0,6.018133216198957,15.375027272406047,23.811416028803247,41.22011780078928,62.599587702187826,63.094191279992636,58.91706866341347,73.49530376040269,72.58848904779926,54.34167441900957,43.18484152480213,22.32760529538876,7.9280945913858965,0.0,0.0,0.0,0.0,0.0,0.0,0.0,0.0,0.0,0.0,0.0,5.13869967800849,23.495536843984762,43.1985321120086,60.112630306189814,54.891289265407686,63.79490042519675,27.741112396596307,78.88142968719728,70.01913920879501,50.851819280195436,13.025473588007571,5.743325792999897,0.0,0.0,0.0,0.0,0.0,0.0,0.0,0.0,0.0,0.0,0.0,0.0,5.976812534812143,23.522918018397714,43.23985279339541,60.63461505840759,73.98990733820752,45.5343952092006,74.40211847300608,75.13045771239057,47.89763948080554,59.83782288299074,39.007967827990335,26.064886682989005,7.488253362406965,0.0,0.0,0.0,0.0,0.0,0.0,0.0,0.0,0.0,0.0,0.0,5.619612668606844,23.852736710190054,44.984780362802475,55.262428638586854,64.11102852978264,67.69696669880949,55.24848913161298,52.48697323218332,65.32003183999808,66.29554840840125,44.86106723840943,29.252553224191136,11.44533090461298,0.08239244300623963,0.0,0.0,0.0,0.0,0.0,0.0,0.0,0.0,0.0,0.0,5.7846464743867125,23.591619874197477,44.22905994900507,61.87124846280335,74.58059394622504,82.19280935279245,74.77325784618526,84.14384248959881,77.49370198399548,66.74908022458665,50.796808011602145,30.98379020639173,10.511135017596617,0.0,0.0,0.0,0.0,0.0,0.0,0.0,0.0,0.0,0.0,0.0,5.688314524406608,23.495536843984762,38.65076796178504,53.33877667619344,49.6975783188059,20.445025094614774,13.520077165812395,33.2920232094034,65.4574355515976,47.96634133660532,39.475190231382214,30.777684638992433,8.463769930810148,0.0,0.0,0.0,0.0,0.0,0.0,0.0,0.0,0.0,0.0,0.0,4.891522348989772,16.55664940820852,45.02610104418929,25.6113548668036,60.717007501413825,60.35980763520853,14.207095723810045,20.665070168987935,39.4338695499954,38.27962858860587,30.5439489774128,17.0238718116004,3.3250702528016576,0.0,0.0,0.0,0.0,0.0,0.0,0.0,0.0,0.0,0.0,0.0,2.5143385704109558,17.504784802198753,6.3479519079913045,17.037562398806873,20.445025094614774,38.78817167338457,40.51940865558515,44.984780362802475,47.540439614600245,48.06267328658543,6.045514390611907,15.210242386393563,9.46691659339367,0.0,0.0,0.0,0.0,0.0,0.0,0.0,0.0,0.0,0.0,0.0,1.8412595193871728,13.918597713404512,21.008579447986754,35.064580872990796,80.1867649473928,67.381087513991,87.85374270278612,58.024193457783916,36.424678482012226,63.67118730080371,51.77232458000533,31.38231075398384,10.937036739601679,0.0,0.0,0.0,0.0,0.0,0.0,0.0,0.0,0.0,0.0,0.0,4.603024338584238,24.04515169038288,46.86711164380908,67.4360987825843,81.12120975417656,35.66895806821481,74.09992987539408,87.22173541338177,80.1867649473928,69.3184300635909,52.8028524170018,23.94881974040277,10.030222026998263,0.0,0.0,0.0,0.0,0.0,0.0,0.0,0.0,0.0,0.0,0.0,5.001295966408961,23.660321729997243,45.3833009103946,63.382689290398176,75.99620066337455,83.60791823040717,60.057619037596524,84.9132534906027,52.62437694378284,67.54587240000347,50.947902310408146,30.87376766920515,11.129451719794496,0.0,0.0,0.0,0.0,0.0,0.0,0.0,0.0,0.0,0.0,0.0,5.2761033896080205,23.02831444059289,37.52390817480846,56.375348918589566,66.4192615327943,74.23733358699359,84.22623493260507,82.19280935279245,37.82634569218786,49.43646148281332,50.05477818501121,30.36547350419385,9.686712747999435,0.0,0.0,0.0,0.0,0.0,0.0,0.0,0.0,0.0,0.0,0.0,5.0836884094152,22.64348448020725,43.32224523640164,61.143158143186284,73.92120548240773,81.51973030176869,84.14384248959881,83.45682393160119,77.01278899339717,66.2681672339883,50.480928826783654,30.461556534406558,10.813323615208626,0.0,0.0,0.0,0.0,0.0,0.0,0.0,0.0,0.0,0.0,0.0,4.534322482784472,22.808518285987116,44.70997293960343,62.9567875683931,56.19662452560322,30.310462235600557,87.68870889700625,84.67976674879047,81.34100590878234,70.10153165180125,53.4074785319932,31.519714465583373,10.071542708385076,0.0,0.0,0.0,0.0,0.0,0.0,0.0,0.0,0.0,0.0,0.0,4.080790666599069,22.712186336007004,41.700781871620244,43.59705265960071,20.321560889989108,51.85471702301156,74.5945334531989,67.55956298720996,55.88074534078473,55.5922473303792,37.812406185214,25.570283105184174,9.975210758404973,0.0,0.0,0.0,0.0,0.0,0.0,0.0,0.0,0.0,0.0,0.0,3.8059832434000103,18.576384400814646,38.45835298159221,57.70806535319805,63.726198569397,74.36104671138669,86.2322793380047,72.24497976880043,66.52903515021349,61.514048596598045,50.412226970983895,26.3257545992142,9.480607180600146,0.0,0.0,0.0,0.0,0.0,0.0,0.0,0.0,0.0,0.0,0.0,3.9433869549995397,22.62979389300077,45.081112312782594,63.272666753211595,76.1196648680002,83.66292949900047,60.29110577940877,10.923346152395203,37.74370432941422,64.60563210758747,53.28376540760014,27.603708684996786,9.741724016592727,0.0,0.0,0.0,0.0,0.0,0.0,0.0,0.0,0.0,0.0,0.0,4.410609358391419,17.916995936997345,37.13932713419021,48.74969184458306,67.02388764778571,42.41543052379824,35.036950778810464,49.628876463006144,55.04238356421371,46.86711164380908,31.14857509240421,14.069692012210515,5.702005111613084,0.0,0.0,0.0,0.0,0.0,0.0,0.0,0.0,0.0,0.0,0.0,2.170829291412132,15.416347953792863,16.927788781387687,17.84829408119758,51.34642285800025,43.803158227,44.778674795403184,67.2847555640109,63.34136860901136,60.387437729388864,35.6141957193889,14.880423694601216,9.714093922412387,0.0,0.0,0.0,0.0,0.0,0.0,0.0,0.0,0.0,0.0,0.0,4.094481253805545,22.148880902402414,32.57762347699279,32.5226122083995,76.9990984061907,63.0117988369864,62.58589711498134,85.5315701928006,78.51029031401809,67.72459679298983,35.88900314258797,22.794578779013253,3.160285366789178,0.0,0.0,0.0,0.0,0.0,0.0,0.0,0.0,0.0,0.0,0.0,4.0120888107993045,22.16257148960889,43.84447890838683,62.03628226858323,74.93804273219773,82.41260550739824,85.0780383766152,83.14094474678271,30.708982783192674,67.29869507098475,50.041087597804726,29.898251100801964,9.700403335205914,0.0,0.0,0.0,0.0,0.0,0.0,0.0,0.0,0.0,0.0,0.0,3.7099002131872965,21.92908474779665,43.88579958977363,61.912569144190165,74.62191462761186,82.16517925861213,65.15524695398558,86.79558477160931,76.66927971439833,66.11707293518228,50.302204433797314,29.857179339182547,8.353996313390956,0.0,0.0,0.0,0.0,0.0,0.0,0.0,0.0,0.0,0.0,0.0,3.4624739644011875,17.284988647592982,43.77577705258705,62.063663442996166,75.18546898098384,82.632401662004,85.27070227657539,83.33311080720813,76.84800410738467,48.94185790500849,49.876302711792256,29.18385136839137,9.549309036399908,0.0,0.0,0.0,0.0,0.0,0.0,0.0,0.0,0.0,0.0,0.0,2.0747462611994174,11.624055297599327,37.4552063190087,35.24305634620975,54.080806502784384,67.22999321518499,28.661617696406196,26.298373424801248,33.882958737188325,58.1339670752031,51.209019146400735,29.74715680199596,9.728033429386253,0.0,0.0,0.0,0.0,0.0,0.0,0.0,0.0,0.0,0.0,0.0,3.599877676000716,21.43448116999182,43.78946763979353,62.599587702187826,75.18522006121646,65.84226551198323,86.79558477160931,59.83782288299074,45.91922516958624,53.90208210979804,50.274823259384355,29.32125507999089,8.546411293583779,0.0,0.0,0.0,0.0,0.0,0.0,0.0,0.0,0.0,0.0,0.0,3.6272588504136656,21.420790582785347,43.885550670006246,62.324780278988754,75.33631436002246,64.30319459020808,63.918613549589814,40.68419354159765,28.41444036738748,33.81425688138856,43.92687135139306,28.854032676599026,9.260811025994377,0.0,0.0,0.0,0.0,0.0,0.0,0.0,0.0,0.0,0.0,0.0,3.7099002131872965,21.13204365261242,42.9924265446093,61.541429771010996,75.19915956819031,82.96222035379634,6
...